topology_creation/OpenDSS_data/LINES_LV_5.dss
new line.LVN_5_1 bus1=LVN_5_b1 bus2=LVN_5_b2 phases=3 linecode=4c_70 length=28.305300 units=m
new line.LVN_5_2 bus1=LVN_5_b2 bus2=LVN_5_b204 phases=3 linecode=4c_70 length=3.852480 units=m
new line.LVN_5_3 bus1=LVN_5_b2 bus2=LVN_5_b350 phases=3 linecode=4c_70 length=22.972500 units=m
new line.LVN_5_4 bus1=LVN_5_b3 bus2=LVN_5_b8 phases=3 linecode=2c_16 length=8.945220 units=m
new line.LVN_5_5 bus1=LVN_5_b3 bus2=LVN_5_b10 phases=3 linecode=4c_70 length=14.450500 units=m
new line.LVN_5_6 bus1=LVN_5_b3 bus2=LVN_5_b15 phases=3 linecode=35_SA length=6.240060 units=m
new line.LVN_5_7 bus1=LVN_5_b10 bus2=LVN_5_b16 phases=3 linecode=2c_022 length=6.313110 units=m
new line.LVN_5_8 bus1=LVN_5_b10 bus2=LVN_5_b17 phases=3 linecode=4c_70 length=5.524230 units=m
new line.LVN_5_9 bus1=LVN_5_b17 bus2=LVN_5_b28 phases=3 linecode=2c_16 length=7.061750 units=m
new line.LVN_5_10 bus1=LVN_5_b17 bus2=LVN_5_b29 phases=3 linecode=4c_70 length=6.779740 units=m
new line.LVN_5_11 bus1=LVN_5_b18 bus2=LVN_5_b22 phases=3 linecode=2c_022 length=11.677000 units=m
new line.LVN_5_12 bus1=LVN_5_b22 bus2=LVN_5_b24 phases=3 linecode=4c_70 length=5.206690 units=m
new line.LVN_5_13 bus1=LVN_5_b22 bus2=LVN_5_b27 phases=3 linecode=2c_16 length=8.117830 units=m
new line.LVN_5_14 bus1=LVN_5_b23 bus2=LVN_5_b24 phases=3 linecode=35_SA length=6.319190 units=m
new line.LVN_5_15 bus1=LVN_5_b24 bus2=LVN_5_b30 phases=3 linecode=4c_70 length=4.742320 units=m
new line.LVN_5_16 bus1=LVN_5_b29 bus2=LVN_5_b34 phases=3 linecode=2c_16 length=6.251450 units=m
new line.LVN_5_17 bus1=LVN_5_b29 bus2=LVN_5_b35 phases=3 linecode=4c_70 length=5.445150 units=m
new line.LVN_5_18 bus1=LVN_5_b30 bus2=LVN_5_b33 phases=3 linecode=2c_022 length=12.327800 units=m
new line.LVN_5_19 bus1=LVN_5_b30 bus2=LVN_5_b38 phases=3 linecode=4c_70 length=6.052500 units=m
new line.LVN_5_20 bus1=LVN_5_b35 bus2=LVN_5_b42 phases=3 linecode=2c_16 length=6.635570 units=m
new line.LVN_5_21 bus1=LVN_5_b35 bus2=LVN_5_b43 phases=3 linecode=4c_70 length=6.509560 units=m
new line.LVN_5_22 bus1=LVN_5_b36 bus2=LVN_5_b38 phases=3 linecode=2c_16 length=10.732500 units=m
new line.LVN_5_23 bus1=LVN_5_b38 bus2=LVN_5_b40 phases=3 linecode=4c_70 length=3.456350 units=m
new line.LVN_5_24 bus1=LVN_5_b40 bus2=LVN_5_b46 phases=3 linecode=2c_022 length=10.725400 units=m
new line.LVN_5_25 bus1=LVN_5_b40 bus2=LVN_5_b54 phases=3 linecode=4c_70 length=10.157900 units=m
new line.LVN_5_26 bus1=LVN_5_b43 bus2=LVN_5_b47 phases=3 linecode=35_SA length=6.104490 units=m
new line.LVN_5_27 bus1=LVN_5_b43 bus2=LVN_5_b51 phases=3 linecode=4c_70 length=10.409200 units=m
new line.LVN_5_28 bus1=LVN_5_b51 bus2=LVN_5_b58 phases=3 linecode=4c_70 length=4.854210 units=m
new line.LVN_5_29 bus1=LVN_5_b51 bus2=LVN_5_b60 phases=3 linecode=2c_022 length=10.347600 units=m
new line.LVN_5_30 bus1=LVN_5_b54 bus2=LVN_5_b57 phases=3 linecode=2c_022 length=11.667200 units=m
new line.LVN_5_31 bus1=LVN_5_b54 bus2=LVN_5_b67 phases=3 linecode=4c_70 length=9.292570 units=m
new line.LVN_5_32 bus1=LVN_5_b58 bus2=LVN_5_b59 phases=3 linecode=35_SA length=10.029700 units=m
new line.LVN_5_33 bus1=LVN_5_b58 bus2=LVN_5_b65 phases=3 linecode=4c_70 length=5.955410 units=m
new line.LVN_5_34 bus1=LVN_5_b64 bus2=LVN_5_b65 phases=3 linecode=2c_16 length=9.954080 units=m
new line.LVN_5_35 bus1=LVN_5_b65 bus2=LVN_5_b75 phases=3 linecode=4c_70 length=8.836100 units=m
new line.LVN_5_36 bus1=LVN_5_b67 bus2=LVN_5_b70 phases=3 linecode=35_SA length=12.261400 units=m
new line.LVN_5_37 bus1=LVN_5_b67 bus2=LVN_5_b79 phases=3 linecode=4c_70 length=6.051380 units=m
new line.LVN_5_38 bus1=LVN_5_b72 bus2=LVN_5_b75 phases=3 linecode=35_SA length=10.501100 units=m
new line.LVN_5_39 bus1=LVN_5_b75 bus2=LVN_5_b87 phases=3 linecode=4c_70 length=10.680500 units=m
new line.LVN_5_40 bus1=LVN_5_b76 bus2=LVN_5_b79 phases=3 linecode=2c_022 length=12.008200 units=m
new line.LVN_5_41 bus1=LVN_5_b79 bus2=LVN_5_b83 phases=3 linecode=4c_70 length=5.231940 units=m
new line.LVN_5_42 bus1=LVN_5_b83 bus2=LVN_5_b86 phases=3 linecode=2c_16 length=11.698200 units=m
new line.LVN_5_43 bus1=LVN_5_b83 bus2=LVN_5_b91 phases=3 linecode=4c_70 length=4.077720 units=m
new line.LVN_5_44 bus1=LVN_5_b87 bus2=LVN_5_b105 phases=3 linecode=4c_70 length=6.637250 units=m
new line.LVN_5_45 bus1=LVN_5_b87 bus2=LVN_5_b108 phases=3 linecode=4c_70 length=15.173900 units=m
new line.LVN_5_46 bus1=LVN_5_b88 bus2=LVN_5_b91 phases=3 linecode=35_SA length=11.516300 units=m
new line.LVN_5_47 bus1=LVN_5_b91 bus2=LVN_5_b96 phases=3 linecode=4c_70 length=5.169500 units=m
new line.LVN_5_48 bus1=LVN_5_b92 bus2=LVN_5_b95 phases=3 linecode=2c_022 length=8.539520 units=m
new line.LVN_5_49 bus1=LVN_5_b92 bus2=LVN_5_b100 phases=3 linecode=2c_16 length=9.640960 units=m
new line.LVN_5_50 bus1=LVN_5_b92 bus2=LVN_5_b104 phases=3 linecode=4c_70 length=9.407600 units=m
new line.LVN_5_51 bus1=LVN_5_b96 bus2=LVN_5_b99 phases=3 linecode=2c_022 length=11.672300 units=m
new line.LVN_5_52 bus1=LVN_5_b96 bus2=LVN_5_b103 phases=3 linecode=4c_70 length=5.054740 units=m
new line.LVN_5_53 bus1=LVN_5_b103 bus2=LVN_5_b127 phases=3 linecode=4c_70 length=13.697000 units=m
new line.LVN_5_54 bus1=LVN_5_b103 bus2=LVN_5_b132 phases=3 linecode=4c_70 length=9.557600 units=m
new line.LVN_5_55 bus1=LVN_5_b104 bus2=LVN_5_b127 phases=3 linecode=4c_70 length=9.018310 units=m
new line.LVN_5_56 bus1=LVN_5_b104 bus2=LVN_5_b128 phases=3 linecode=35_SA length=8.710320 units=m
new line.LVN_5_57 bus1=LVN_5_b105 bus2=LVN_5_b106 phases=3 linecode=35_SA length=4.434050 units=m
new line.LVN_5_58 bus1=LVN_5_b105 bus2=LVN_5_b113 phases=3 linecode=2c_16 length=8.951940 units=m
new line.LVN_5_59 bus1=LVN_5_b108 bus2=LVN_5_b114 phases=3 linecode=4c_70 length=27.181200 units=m
new line.LVN_5_60 bus1=LVN_5_b108 bus2=LVN_5_b132 phases=3 linecode=4c_70 length=9.368040 units=m
new line.LVN_5_61 bus1=LVN_5_b114 bus2=LVN_5_b133 phases=3 linecode=4c_70 length=13.842800 units=m
new line.LVN_5_62 bus1=LVN_5_b114 bus2=LVN_5_b160 phases=3 linecode=4c_70 length=19.977000 units=m
new line.LVN_5_63 bus1=LVN_5_b117 bus2=LVN_5_b118 phases=3 linecode=2c_16 length=7.731700 units=m
new line.LVN_5_64 bus1=LVN_5_b118 bus2=LVN_5_b122 phases=3 linecode=35_SA length=11.837900 units=m
new line.LVN_5_65 bus1=LVN_5_b118 bus2=LVN_5_b133 phases=3 linecode=4c_70 length=8.673790 units=m
new line.LVN_5_66 bus1=LVN_5_b123 bus2=LVN_5_b126 phases=3 linecode=2c_022 length=11.579700 units=m
new line.LVN_5_67 bus1=LVN_5_b123 bus2=LVN_5_b134 phases=3 linecode=4c_70 length=8.926990 units=m
new line.LVN_5_68 bus1=LVN_5_b123 bus2=LVN_5_b150 phases=3 linecode=2c_16 length=10.414600 units=m
new line.LVN_5_69 bus1=LVN_5_b127 bus2=LVN_5_b134 phases=3 linecode=4c_70 length=28.232900 units=m
new line.LVN_5_70 bus1=LVN_5_b132 bus2=LVN_5_b157 phases=3 linecode=4c_70 length=28.387300 units=m
new line.LVN_5_71 bus1=LVN_5_b132 bus2=LVN_5_b194 phases=3 linecode=4c_70 length=54.775300 units=m
new line.LVN_5_72 bus1=LVN_5_b133 bus2=LVN_5_b154 phases=3 linecode=2c_16 length=6.166010 units=m
new line.LVN_5_73 bus1=LVN_5_b134 bus2=LVN_5_b137 phases=3 linecode=2c_16 length=10.921100 units=m
new line.LVN_5_74 bus1=LVN_5_b155 bus2=LVN_5_b156 phases=3 linecode=2c_022 length=8.152050 units=m
new line.LVN_5_75 bus1=LVN_5_b156 bus2=LVN_5_b167 phases=3 linecode=2c_022 length=12.504000 units=m
new line.LVN_5_76 bus1=LVN_5_b156 bus2=LVN_5_b168 phases=3 linecode=4c_70 length=6.272990 units=m
new line.LVN_5_77 bus1=LVN_5_b157 bus2=LVN_5_b169 phases=3 linecode=2c_16 length=8.789840 units=m
new line.LVN_5_78 bus1=LVN_5_b157 bus2=LVN_5_b170 phases=3 linecode=4c_70 length=6.541020 units=m
new line.LVN_5_79 bus1=LVN_5_b160 bus2=LVN_5_b163 phases=3 linecode=4c_70 length=20.125500 units=m
new line.LVN_5_80 bus1=LVN_5_b160 bus2=LVN_5_b168 phases=3 linecode=4c_70 length=14.456000 units=m
new line.LVN_5_81 bus1=LVN_5_b163 bus2=LVN_5_b178 phases=3 linecode=4c_70 length=12.751300 units=m
new line.LVN_5_82 bus1=LVN_5_b163 bus2=LVN_5_b215 phases=3 linecode=4c_70 length=33.506600 units=m
new line.LVN_5_83 bus1=LVN_5_b168 bus2=LVN_5_b171 phases=3 linecode=2c_022 length=5.359380 units=m
new line.LVN_5_84 bus1=LVN_5_b170 bus2=LVN_5_b172 phases=3 linecode=2c_022 length=8.306210 units=m
new line.LVN_5_85 bus1=LVN_5_b170 bus2=LVN_5_b173 phases=3 linecode=4c_70 length=6.041190 units=m
new line.LVN_5_86 bus1=LVN_5_b173 bus2=LVN_5_b179 phases=3 linecode=2c_022 length=8.170260 units=m
new line.LVN_5_87 bus1=LVN_5_b173 bus2=LVN_5_b180 phases=3 linecode=4c_70 length=7.951650 units=m
new line.LVN_5_88 bus1=LVN_5_b174 bus2=LVN_5_b177 phases=3 linecode=2c_022 length=9.418820 units=m
new line.LVN_5_89 bus1=LVN_5_b177 bus2=LVN_5_b178 phases=3 linecode=4c_70 length=8.433870 units=m
new line.LVN_5_90 bus1=LVN_5_b177 bus2=LVN_5_b187 phases=3 linecode=2c_16 length=8.864710 units=m
new line.LVN_5_91 bus1=LVN_5_b178 bus2=LVN_5_b195 phases=3 linecode=35_SA length=5.224730 units=m
new line.LVN_5_92 bus1=LVN_5_b180 bus2=LVN_5_b181 phases=3 linecode=4c_70 length=4.768560 units=m
new line.LVN_5_93 bus1=LVN_5_b180 bus2=LVN_5_b188 phases=3 linecode=35_SA length=7.863440 units=m
new line.LVN_5_94 bus1=LVN_5_b181 bus2=LVN_5_b184 phases=3 linecode=2c_022 length=10.201300 units=m
new line.LVN_5_95 bus1=LVN_5_b181 bus2=LVN_5_b190 phases=3 linecode=4c_70 length=5.576320 units=m
new line.LVN_5_96 bus1=LVN_5_b189 bus2=LVN_5_b190 phases=3 linecode=4c_70 length=3.588800 units=m
new line.LVN_5_97 bus1=LVN_5_b189 bus2=LVN_5_b208 phases=3 linecode=2c_022 length=8.060150 units=m
new line.LVN_5_98 bus1=LVN_5_b189 bus2=LVN_5_b209 phases=3 linecode=4c_70 length=6.418580 units=m
new line.LVN_5_99 bus1=LVN_5_b190 bus2=LVN_5_b193 phases=3 linecode=35_SA length=9.301530 units=m
new line.LVN_5_100 bus1=LVN_5_b194 bus2=LVN_5_b202 phases=3 linecode=4c_70 length=20.179300 units=m
new line.LVN_5_101 bus1=LVN_5_b194 bus2=LVN_5_b205 phases=3 linecode=4c_70 length=10.460600 units=m
new line.LVN_5_102 bus1=LVN_5_b196 bus2=LVN_5_b199 phases=3 linecode=2c_16 length=7.611120 units=m
new line.LVN_5_103 bus1=LVN_5_b196 bus2=LVN_5_b215 phases=3 linecode=4c_70 length=6.980100 units=m
new line.LVN_5_104 bus1=LVN_5_b196 bus2=LVN_5_b221 phases=3 linecode=2c_16 length=8.400140 units=m
new line.LVN_5_105 bus1=LVN_5_b202 bus2=LVN_5_b203 phases=3 linecode=4c_70 length=26.985700 units=m
new line.LVN_5_106 bus1=LVN_5_b202 bus2=LVN_5_b236 phases=3 linecode=4c_70 length=10.367000 units=m
new line.LVN_5_107 bus1=LVN_5_b203 bus2=LVN_5_b204 phases=3 linecode=4c_70 length=15.122200 units=m
new line.LVN_5_108 bus1=LVN_5_b203 bus2=LVN_5_b281 phases=3 linecode=4c_70 length=31.093400 units=m
new line.LVN_5_109 bus1=LVN_5_b204 bus2=LVN_5_b385 phases=3 linecode=4c_70 length=62.625900 units=m
new line.LVN_5_110 bus1=LVN_5_b205 bus2=LVN_5_b207 phases=3 linecode=2c_022 length=11.482200 units=m
new line.LVN_5_111 bus1=LVN_5_b205 bus2=LVN_5_b229 phases=3 linecode=4c_70 length=6.980100 units=m
new line.LVN_5_112 bus1=LVN_5_b209 bus2=LVN_5_b222 phases=3 linecode=2c_022 length=7.981640 units=m
new line.LVN_5_113 bus1=LVN_5_b209 bus2=LVN_5_b227 phases=3 linecode=4c_70 length=25.528700 units=m
new line.LVN_5_114 bus1=LVN_5_b215 bus2=LVN_5_b218 phases=3 linecode=35_SA length=7.596460 units=m
new line.LVN_5_115 bus1=LVN_5_b227 bus2=LVN_5_b228 phases=3 linecode=4c_70 length=8.820220 units=m
new line.LVN_5_116 bus1=LVN_5_b227 bus2=LVN_5_b260 phases=3 linecode=4c_70 length=6.753990 units=m
new line.LVN_5_117 bus1=LVN_5_b228 bus2=LVN_5_b272 phases=3 linecode=2c_16 length=4.708520 units=m
new line.LVN_5_118 bus1=LVN_5_b228 bus2=LVN_5_b276 phases=3 linecode=35_SA length=4.019970 units=m
new line.LVN_5_119 bus1=LVN_5_b229 bus2=LVN_5_b233 phases=3 linecode=2c_022 length=13.032400 units=m
new line.LVN_5_120 bus1=LVN_5_b229 bus2=LVN_5_b235 phases=3 linecode=2c_022 length=8.826860 units=m
new line.LVN_5_121 bus1=LVN_5_b236 bus2=LVN_5_b246 phases=3 linecode=2c_022 length=11.419700 units=m
new line.LVN_5_122 bus1=LVN_5_b236 bus2=LVN_5_b256 phases=3 linecode=4c_70 length=5.688560 units=m
new line.LVN_5_123 bus1=LVN_5_b237 bus2=LVN_5_b240 phases=3 linecode=2c_16 length=6.756780 units=m
new line.LVN_5_124 bus1=LVN_5_b240 bus2=LVN_5_b245 phases=3 linecode=2c_16 length=9.041530 units=m
new line.LVN_5_125 bus1=LVN_5_b240 bus2=LVN_5_b252 phases=3 linecode=4c_70 length=5.423910 units=m
new line.LVN_5_126 bus1=LVN_5_b249 bus2=LVN_5_b251 phases=3 linecode=35_SA length=10.414600 units=m
new line.LVN_5_127 bus1=LVN_5_b251 bus2=LVN_5_b263 phases=3 linecode=2c_022 length=11.579700 units=m
new line.LVN_5_128 bus1=LVN_5_b251 bus2=LVN_5_b277 phases=3 linecode=4c_70 length=8.926990 units=m
new line.LVN_5_129 bus1=LVN_5_b252 bus2=LVN_5_b255 phases=3 linecode=2c_022 length=7.090600 units=m
new line.LVN_5_130 bus1=LVN_5_b252 bus2=LVN_5_b260 phases=3 linecode=4c_70 length=5.376500 units=m
new line.LVN_5_131 bus1=LVN_5_b256 bus2=LVN_5_b259 phases=3 linecode=2c_16 length=9.598120 units=m
new line.LVN_5_132 bus1=LVN_5_b256 bus2=LVN_5_b265 phases=3 linecode=2c_022 length=8.975190 units=m
new line.LVN_5_133 bus1=LVN_5_b260 bus2=LVN_5_b267 phases=3 linecode=4c_70 length=7.751660 units=m
new line.LVN_5_134 bus1=LVN_5_b267 bus2=LVN_5_b297 phases=3 linecode=4c_70 length=8.632980 units=m
new line.LVN_5_135 bus1=LVN_5_b267 bus2=LVN_5_b299 phases=3 linecode=4c_70 length=6.054070 units=m
new line.LVN_5_136 bus1=LVN_5_b268 bus2=LVN_5_b271 phases=3 linecode=2c_022 length=9.640960 units=m
new line.LVN_5_137 bus1=LVN_5_b268 bus2=LVN_5_b295 phases=3 linecode=35_SA length=8.539520 units=m
new line.LVN_5_138 bus1=LVN_5_b268 bus2=LVN_5_b313 phases=3 linecode=4c_70 length=9.407600 units=m
new line.LVN_5_139 bus1=LVN_5_b277 bus2=LVN_5_b304 phases=3 linecode=2c_16 length=10.921100 units=m
new line.LVN_5_140 bus1=LVN_5_b277 bus2=LVN_5_b305 phases=3 linecode=4c_70 length=30.114900 units=m
new line.LVN_5_141 bus1=LVN_5_b281 bus2=LVN_5_b284 phases=3 linecode=2c_16 length=12.641100 units=m
new line.LVN_5_142 bus1=LVN_5_b281 bus2=LVN_5_b339 phases=3 linecode=2c_16 length=14.794700 units=m
new line.LVN_5_143 bus1=LVN_5_b285 bus2=LVN_5_b290 phases=3 linecode=2c_022 length=7.155380 units=m
new line.LVN_5_144 bus1=LVN_5_b285 bus2=LVN_5_b291 phases=3 linecode=2c_16 length=5.524630 units=m
new line.LVN_5_145 bus1=LVN_5_b285 bus2=LVN_5_b292 phases=3 linecode=4c_70 length=3.799100 units=m
new line.LVN_5_146 bus1=LVN_5_b292 bus2=LVN_5_b297 phases=3 linecode=4c_70 length=4.947620 units=m
new line.LVN_5_147 bus1=LVN_5_b292 bus2=LVN_5_b327 phases=3 linecode=2c_022 length=5.725650 units=m
new line.LVN_5_148 bus1=LVN_5_b296 bus2=LVN_5_b297 phases=3 linecode=4c_70 length=7.822450 units=m
new line.LVN_5_149 bus1=LVN_5_b296 bus2=LVN_5_b340 phases=3 linecode=4c_70 length=7.165700 units=m
new line.LVN_5_150 bus1=LVN_5_b296 bus2=LVN_5_b361 phases=3 linecode=4c_70 length=7.986070 units=m
new line.LVN_5_151 bus1=LVN_5_b299 bus2=LVN_5_b301 phases=3 linecode=2c_022 length=4.512640 units=m
new line.LVN_5_152 bus1=LVN_5_b299 bus2=LVN_5_b316 phases=3 linecode=2c_16 length=7.173170 units=m
new line.LVN_5_153 bus1=LVN_5_b305 bus2=LVN_5_b313 phases=3 linecode=4c_70 length=11.772100 units=m
new line.LVN_5_154 bus1=LVN_5_b305 bus2=LVN_5_b354 phases=3 linecode=4c_70 length=19.658400 units=m
new line.LVN_5_155 bus1=LVN_5_b311 bus2=LVN_5_b313 phases=3 linecode=2c_16 length=8.710320 units=m
new line.LVN_5_156 bus1=LVN_5_b317 bus2=LVN_5_b321 phases=3 linecode=35_SA length=6.855140 units=m
new line.LVN_5_157 bus1=LVN_5_b317 bus2=LVN_5_b336 phases=3 linecode=2c_16 length=3.867650 units=m
new line.LVN_5_158 bus1=LVN_5_b317 bus2=LVN_5_b340 phases=3 linecode=4c_70 length=8.858740 units=m
new line.LVN_5_159 bus1=LVN_5_b322 bus2=LVN_5_b324 phases=3 linecode=2c_022 length=8.975190 units=m
new line.LVN_5_160 bus1=LVN_5_b322 bus2=LVN_5_b343 phases=3 linecode=4c_70 length=5.688560 units=m
new line.LVN_5_161 bus1=LVN_5_b322 bus2=LVN_5_b346 phases=3 linecode=35_SA length=9.598120 units=m
new line.LVN_5_162 bus1=LVN_5_b340 bus2=LVN_5_b360 phases=3 linecode=4c_70 length=7.697330 units=m
new line.LVN_5_163 bus1=LVN_5_b343 bus2=LVN_5_b353 phases=3 linecode=2c_022 length=11.419700 units=m
new line.LVN_5_164 bus1=LVN_5_b343 bus2=LVN_5_b354 phases=3 linecode=4c_70 length=13.926000 units=m
new line.LVN_5_165 bus1=LVN_5_b347 bus2=LVN_5_b349 phases=3 linecode=35_SA length=8.826860 units=m
new line.LVN_5_166 bus1=LVN_5_b347 bus2=LVN_5_b355 phases=3 linecode=4c_70 length=6.980100 units=m
new line.LVN_5_167 bus1=LVN_5_b347 bus2=LVN_5_b359 phases=3 linecode=35_SA length=13.032400 units=m
new line.LVN_5_168 bus1=LVN_5_b350 bus2=LVN_5_b351 phases=3 linecode=4c_70 length=19.158500 units=m
new line.LVN_5_169 bus1=LVN_5_b350 bus2=LVN_5_b369 phases=3 linecode=4c_70 length=20.155200 units=m
new line.LVN_5_170 bus1=LVN_5_b351 bus2=LVN_5_b428 phases=3 linecode=2c_16 length=13.818900 units=m
new line.LVN_5_171 bus1=LVN_5_b351 bus2=LVN_5_b432 phases=3 linecode=2c_16 length=8.905280 units=m
new line.LVN_5_172 bus1=LVN_5_b351 bus2=LVN_5_b436 phases=3 linecode=2c_022 length=15.630200 units=m
new line.LVN_5_173 bus1=LVN_5_b354 bus2=LVN_5_b396 phases=3 linecode=4c_70 length=21.193900 units=m
new line.LVN_5_174 bus1=LVN_5_b355 bus2=LVN_5_b396 phases=3 linecode=4c_70 length=11.561000 units=m
new line.LVN_5_175 bus1=LVN_5_b355 bus2=LVN_5_b399 phases=3 linecode=35_SA length=11.482200 units=m
new line.LVN_5_176 bus1=LVN_5_b360 bus2=LVN_5_b384 phases=3 linecode=4c_70 length=8.221230 units=m
new line.LVN_5_177 bus1=LVN_5_b360 bus2=LVN_5_b403 phases=3 linecode=4c_70 length=6.944550 units=m
new line.LVN_5_178 bus1=LVN_5_b361 bus2=LVN_5_b364 phases=3 linecode=2c_16 length=5.882300 units=m
new line.LVN_5_179 bus1=LVN_5_b361 bus2=LVN_5_b366 phases=3 linecode=2c_022 length=4.198160 units=m
new line.LVN_5_180 bus1=LVN_5_b369 bus2=LVN_5_b370 phases=3 linecode=4c_70 length=12.728700 units=m
new line.LVN_5_181 bus1=LVN_5_b369 bus2=LVN_5_b402 phases=3 linecode=4c_70 length=20.155200 units=m
new line.LVN_5_182 bus1=LVN_5_b370 bus2=LVN_5_b371 phases=3 linecode=4c_70 length=14.136000 units=m
new line.LVN_5_183 bus1=LVN_5_b370 bus2=LVN_5_b437 phases=3 linecode=2c_022 length=6.841100 units=m
new line.LVN_5_184 bus1=LVN_5_b371 bus2=LVN_5_b474 phases=3 linecode=2c_022 length=9.341390 units=m
new line.LVN_5_185 bus1=LVN_5_b371 bus2=LVN_5_b479 phases=3 linecode=35_SA length=7.590480 units=m
new line.LVN_5_186 bus1=LVN_5_b375 bus2=LVN_5_b377 phases=3 linecode=2c_022 length=3.470800 units=m
new line.LVN_5_187 bus1=LVN_5_b375 bus2=LVN_5_b380 phases=3 linecode=2c_16 length=5.417990 units=m
new line.LVN_5_188 bus1=LVN_5_b375 bus2=LVN_5_b381 phases=3 linecode=4c_70 length=4.365960 units=m
new line.LVN_5_189 bus1=LVN_5_b381 bus2=LVN_5_b383 phases=3 linecode=35_SA length=5.657280 units=m
new line.LVN_5_190 bus1=LVN_5_b381 bus2=LVN_5_b384 phases=3 linecode=4c_70 length=5.292140 units=m
new line.LVN_5_191 bus1=LVN_5_b384 bus2=LVN_5_b419 phases=3 linecode=4c_70 length=7.556290 units=m
new line.LVN_5_192 bus1=LVN_5_b385 bus2=LVN_5_b506 phases=3 linecode=4c_70 length=21.496700 units=m
new line.LVN_5_193 bus1=LVN_5_b385 bus2=LVN_5_b510 phases=3 linecode=4c_70 length=19.526400 units=m
new line.LVN_5_194 bus1=LVN_5_b396 bus2=LVN_5_b441 phases=3 linecode=4c_70 length=9.156470 units=m
new line.LVN_5_195 bus1=LVN_5_b402 bus2=LVN_5_b441 phases=3 linecode=4c_70 length=23.799900 units=m
new line.LVN_5_196 bus1=LVN_5_b402 bus2=LVN_5_b448 phases=3 linecode=4c_70 length=9.930260 units=m
new line.LVN_5_197 bus1=LVN_5_b403 bus2=LVN_5_b406 phases=3 linecode=2c_022 length=5.942420 units=m
new line.LVN_5_198 bus1=LVN_5_b403 bus2=LVN_5_b421 phases=3 linecode=2c_16 length=3.735320 units=m
new line.LVN_5_199 bus1=LVN_5_b407 bus2=LVN_5_b410 phases=3 linecode=2c_16 length=4.247690 units=m
new line.LVN_5_200 bus1=LVN_5_b407 bus2=LVN_5_b411 phases=3 linecode=4c_70 length=5.589570 units=m
new line.LVN_5_201 bus1=LVN_5_b407 bus2=LVN_5_b413 phases=3 linecode=2c_16 length=5.476630 units=m
new line.LVN_5_202 bus1=LVN_5_b411 bus2=LVN_5_b423 phases=3 linecode=2c_16 length=6.498980 units=m
new line.LVN_5_203 bus1=LVN_5_b411 bus2=LVN_5_b424 phases=3 linecode=4c_70 length=3.274250 units=m
new line.LVN_5_204 bus1=LVN_5_b414 bus2=LVN_5_b418 phases=3 linecode=2c_022 length=8.646490 units=m
new line.LVN_5_205 bus1=LVN_5_b418 bus2=LVN_5_b419 phases=3 linecode=4c_70 length=5.090440 units=m
new line.LVN_5_206 bus1=LVN_5_b418 bus2=LVN_5_b440 phases=3 linecode=2c_16 length=6.830120 units=m
new line.LVN_5_207 bus1=LVN_5_b419 bus2=LVN_5_b424 phases=3 linecode=4c_70 length=8.374420 units=m
new line.LVN_5_208 bus1=LVN_5_b424 bus2=LVN_5_b425 phases=3 linecode=4c_70 length=7.413540 units=m
new line.LVN_5_209 bus1=LVN_5_b425 bus2=LVN_5_b426 phases=3 linecode=4c_70 length=9.376940 units=m
new line.LVN_5_210 bus1=LVN_5_b425 bus2=LVN_5_b453 phases=3 linecode=4c_70 length=3.661720 units=m
new line.LVN_5_211 bus1=LVN_5_b426 bus2=LVN_5_b427 phases=3 linecode=4c_70 length=4.178830 units=m
new line.LVN_5_212 bus1=LVN_5_b426 bus2=LVN_5_b489 phases=3 linecode=4c_70 length=6.849220 units=m
new line.LVN_5_213 bus1=LVN_5_b427 bus2=LVN_5_b443 phases=3 linecode=35_SA length=6.555980 units=m
new line.LVN_5_214 bus1=LVN_5_b427 bus2=LVN_5_b455 phases=3 linecode=35_SA length=5.149550 units=m
new line.LVN_5_215 bus1=LVN_5_b427 bus2=LVN_5_b472 phases=3 linecode=2c_16 length=7.031030 units=m
new line.LVN_5_216 bus1=LVN_5_b441 bus2=LVN_5_b458 phases=3 linecode=4c_70 length=1.132050 units=m
new line.LVN_5_217 bus1=LVN_5_b448 bus2=LVN_5_b451 phases=3 linecode=2c_022 length=11.974500 units=m
new line.LVN_5_218 bus1=LVN_5_b448 bus2=LVN_5_b452 phases=3 linecode=4c_70 length=8.963540 units=m
new line.LVN_5_219 bus1=LVN_5_b452 bus2=LVN_5_b490 phases=3 linecode=2c_16 length=8.903830 units=m
new line.LVN_5_220 bus1=LVN_5_b452 bus2=LVN_5_b493 phases=3 linecode=4c_70 length=5.806630 units=m
new line.LVN_5_221 bus1=LVN_5_b453 bus2=LVN_5_b465 phases=3 linecode=2c_022 length=9.540850 units=m
new line.LVN_5_222 bus1=LVN_5_b453 bus2=LVN_5_b466 phases=3 linecode=2c_022 length=8.536170 units=m
new line.LVN_5_223 bus1=LVN_5_b456 bus2=LVN_5_b458 phases=3 linecode=4c_70 length=12.509300 units=m
new line.LVN_5_224 bus1=LVN_5_b456 bus2=LVN_5_b527 phases=3 linecode=2c_022 length=7.896470 units=m
new line.LVN_5_225 bus1=LVN_5_b456 bus2=LVN_5_b528 phases=3 linecode=4c_70 length=6.095810 units=m
new line.LVN_5_226 bus1=LVN_5_b458 bus2=LVN_5_b459 phases=3 linecode=4c_70 length=11.776100 units=m
new line.LVN_5_227 bus1=LVN_5_b459 bus2=LVN_5_b461 phases=3 linecode=2c_022 length=8.846340 units=m
new line.LVN_5_228 bus1=LVN_5_b459 bus2=LVN_5_b473 phases=3 linecode=4c_70 length=4.191830 units=m
new line.LVN_5_229 bus1=LVN_5_b473 bus2=LVN_5_b503 phases=3 linecode=4c_70 length=4.709520 units=m
new line.LVN_5_230 bus1=LVN_5_b473 bus2=LVN_5_b525 phases=3 linecode=2c_16 length=8.965260 units=m
new line.LVN_5_231 bus1=LVN_5_b480 bus2=LVN_5_b484 phases=3 linecode=2c_022 length=6.461280 units=m
new line.LVN_5_232 bus1=LVN_5_b484 bus2=LVN_5_b488 phases=3 linecode=35_SA length=7.939710 units=m
new line.LVN_5_233 bus1=LVN_5_b484 bus2=LVN_5_b519 phases=3 linecode=4c_70 length=5.660530 units=m
new line.LVN_5_234 bus1=LVN_5_b489 bus2=LVN_5_b519 phases=3 linecode=4c_70 length=7.382530 units=m
new line.LVN_5_235 bus1=LVN_5_b489 bus2=LVN_5_b520 phases=3 linecode=4c_70 length=6.172240 units=m
new line.LVN_5_236 bus1=LVN_5_b493 bus2=LVN_5_b495 phases=3 linecode=2c_022 length=9.067700 units=m
new line.LVN_5_237 bus1=LVN_5_b493 bus2=LVN_5_b505 phases=3 linecode=2c_022 length=7.011800 units=m
new line.LVN_5_238 bus1=LVN_5_b496 bus2=LVN_5_b499 phases=3 linecode=35_SA length=6.423840 units=m
new line.LVN_5_239 bus1=LVN_5_b496 bus2=LVN_5_b503 phases=3 linecode=4c_70 length=2.779740 units=m
new line.LVN_5_240 bus1=LVN_5_b496 bus2=LVN_5_b521 phases=3 linecode=35_SA length=6.097140 units=m
new line.LVN_5_241 bus1=LVN_5_b500 bus2=LVN_5_b503 phases=3 linecode=2c_16 length=9.553620 units=m
new line.LVN_5_242 bus1=LVN_5_b506 bus2=LVN_5_b569 phases=3 linecode=4c_70 length=21.930800 units=m
new line.LVN_5_243 bus1=LVN_5_b506 bus2=LVN_5_b574 phases=3 linecode=4c_70 length=22.602200 units=m
new line.LVN_5_244 bus1=LVN_5_b510 bus2=LVN_5_b512 phases=3 linecode=2c_022 length=10.729600 units=m
new line.LVN_5_245 bus1=LVN_5_b510 bus2=LVN_5_b541 phases=3 linecode=2c_022 length=12.532100 units=m
new line.LVN_5_246 bus1=LVN_5_b513 bus2=LVN_5_b519 phases=3 linecode=4c_70 length=15.288700 units=m
new line.LVN_5_247 bus1=LVN_5_b513 bus2=LVN_5_b542 phases=3 linecode=2c_16 length=6.097930 units=m
new line.LVN_5_248 bus1=LVN_5_b513 bus2=LVN_5_b548 phases=3 linecode=35_SA length=6.924800 units=m
new line.LVN_5_249 bus1=LVN_5_b520 bus2=LVN_5_b531 phases=3 linecode=2c_16 length=8.645830 units=m
new line.LVN_5_250 bus1=LVN_5_b520 bus2=LVN_5_b532 phases=3 linecode=2c_022 length=4.079830 units=m
new line.LVN_5_251 bus1=LVN_5_b528 bus2=LVN_5_b534 phases=3 linecode=35_SA length=6.603080 units=m
new line.LVN_5_252 bus1=LVN_5_b528 bus2=LVN_5_b535 phases=3 linecode=2c_16 length=8.444910 units=m
new line.LVN_5_253 bus1=LVN_5_b528 bus2=LVN_5_b538 phases=3 linecode=2c_16 length=6.026880 units=m
new line.LVN_5_254 bus1=LVN_5_b549 bus2=LVN_5_b553 phases=3 linecode=2c_16 length=8.690360 units=m
new line.LVN_5_255 bus1=LVN_5_b553 bus2=LVN_5_b554 phases=3 linecode=4c_70 length=0.856761 units=m
new line.LVN_5_256 bus1=LVN_5_b553 bus2=LVN_5_b574 phases=3 linecode=4c_70 length=4.131200 units=m
new line.LVN_5_257 bus1=LVN_5_b554 bus2=LVN_5_b556 phases=3 linecode=2c_16 length=6.439660 units=m
new line.LVN_5_258 bus1=LVN_5_b554 bus2=LVN_5_b560 phases=3 linecode=2c_16 length=9.346200 units=m
new line.LVN_5_259 bus1=LVN_5_b561 bus2=LVN_5_b565 phases=3 linecode=2c_16 length=6.566390 units=m
new line.LVN_5_260 bus1=LVN_5_b561 bus2=LVN_5_b578 phases=3 linecode=2c_022 length=7.128950 units=m
new line.LVN_5_261 bus1=LVN_5_b561 bus2=LVN_5_b579 phases=3 linecode=4c_70 length=12.126600 units=m
new line.LVN_5_262 bus1=LVN_5_b569 bus2=LVN_5_b573 phases=3 linecode=35_SA length=14.557900 units=m
new line.LVN_5_263 bus1=LVN_5_b569 bus2=LVN_5_b590 phases=3 linecode=2c_022 length=8.276320 units=m
new line.LVN_5_264 bus1=LVN_5_b574 bus2=LVN_5_b579 phases=3 linecode=4c_70 length=14.382900 units=m
new line.LVN_5_265 bus1=LVN_5_b574 bus2=LVN_5_b582 phases=3 linecode=4c_70 length=10.221000 units=m
new line.LVN_5_266 bus1=LVN_5_b579 bus2=LVN_5_b596 phases=3 linecode=4c_70 length=15.998000 units=m
new line.LVN_5_267 bus1=LVN_5_b579 bus2=LVN_5_b597 phases=3 linecode=4c_70 length=5.725410 units=m
new line.LVN_5_268 bus1=LVN_5_b582 bus2=LVN_5_b586 phases=3 linecode=2c_16 length=4.395530 units=m
new line.LVN_5_269 bus1=LVN_5_b582 bus2=LVN_5_b595 phases=3 linecode=2c_022 length=4.659030 units=m
new line.LVN_5_270 bus1=LVN_5_b596 bus2=LVN_5_b602 phases=3 linecode=4c_70 length=7.775250 units=m
new line.LVN_5_271 bus1=LVN_5_b596 bus2=LVN_5_b614 phases=3 linecode=4c_70 length=13.908100 units=m
new line.LVN_5_272 bus1=LVN_5_b596 bus2=LVN_5_b617 phases=3 linecode=4c_70 length=11.130700 units=m
new line.LVN_5_273 bus1=LVN_5_b597 bus2=LVN_5_b606 phases=3 linecode=2c_022 length=6.461280 units=m
new line.LVN_5_274 bus1=LVN_5_b597 bus2=LVN_5_b613 phases=3 linecode=2c_022 length=7.939710 units=m
new line.LVN_5_275 bus1=LVN_5_b598 bus2=LVN_5_b602 phases=3 linecode=35_SA length=4.440030 units=m
new line.LVN_5_276 bus1=LVN_5_b602 bus2=LVN_5_b605 phases=3 linecode=2c_16 length=3.520100 units=m
new line.LVN_5_277 bus1=LVN_5_b614 bus2=LVN_5_b616 phases=3 linecode=2c_16 length=14.890200 units=m
new line.LVN_5_278 bus1=LVN_5_b614 bus2=LVN_5_b618 phases=3 linecode=4c_70 length=7.715360 units=m
new line.LVN_5_279 bus1=LVN_5_b617 bus2=LVN_5_b627 phases=3 linecode=2c_16 length=5.701400 units=m
new line.LVN_5_280 bus1=LVN_5_b617 bus2=LVN_5_b631 phases=3 linecode=2c_16 length=5.049150 units=m
new line.LVN_5_281 bus1=LVN_5_b618 bus2=LVN_5_b620 phases=3 linecode=2c_022 length=12.418900 units=m
new line.LVN_5_282 bus1=LVN_5_b618 bus2=LVN_5_b623 phases=3 linecode=4c_70 length=9.954770 units=m
new line.LVN_5_283 bus1=LVN_5_b618 bus2=LVN_5_b632 phases=3 linecode=4c_70 length=11.954000 units=m
new line.LVN_5_284 bus1=LVN_5_b621 bus2=LVN_5_b623 phases=3 linecode=35_SA length=9.499570 units=m
new line.LVN_5_285 bus1=LVN_5_b623 bus2=LVN_5_b634 phases=3 linecode=4c_70 length=4.179250 units=m
new line.LVN_5_286 bus1=LVN_5_b632 bus2=LVN_5_b639 phases=3 linecode=2c_16 length=8.530130 units=m
new line.LVN_5_287 bus1=LVN_5_b632 bus2=LVN_5_b644 phases=3 linecode=35_SA length=8.523710 units=m
new line.LVN_5_288 bus1=LVN_5_b632 bus2=LVN_5_b645 phases=3 linecode=35_SA length=4.259600 units=m
new line.LVN_5_289 bus1=LVN_5_b634 bus2=LVN_5_b646 phases=3 linecode=4c_70 length=7.057580 units=m
new line.LVN_5_290 bus1=LVN_5_b634 bus2=LVN_5_b648 phases=3 linecode=35_SA length=11.811300 units=m
new line.LVN_5_291 bus1=LVN_5_b646 bus2=LVN_5_b647 phases=3 linecode=2c_022 length=6.240610 units=m
new line.LVN_5_292 bus1=LVN_5_b646 bus2=LVN_5_b655 phases=3 linecode=2c_022 length=10.489000 units=m
